12200823
  -OEChem-02042123512D

 22 19  0     0  0  0  0  0  0999 V2000
    1.7320    3.3700    0.0000 O   0  0  0  0  0  0  0  0  0  0  0  0
    6.7025    1.5000    0.0000 O   0  0  0  0  0  0  0  0  0  0  0  0
    0.0000    3.3700    0.0000 O   0  5  0  0  0  0  0  0  0  0  0  0
    4.9705    1.5000    0.0000 O   0  5  0  0  0  0  0  0  0  0  0  0
    0.8660    1.8700    0.0000 O   0  0  0  0  0  0  0  0  0  0  0  0
    5.8365    0.0000    0.0000 O   0  0  0  0  0  0  0  0  0  0  0  0
    7.4040    4.1200    0.0000 N   0  0  0  0  0  0  0  0  0  0  0  0
    4.8059    4.6200    0.0000 N   0  0  0  0  0  0  0  0  0  0  0  0
    0.8660    2.8700    0.0000 N   0  3  0  0  0  0  0  0  0  0  0  0
    5.8365    1.0000    0.0000 N   0  3  0  0  0  0  0  0  0  0  0  0
    6.5380    4.6200    0.0000 C   0  0  0  0  0  0  0  0  0  0  0  0
    5.6720    4.1200    0.0000 C   0  0  0  0  0  0  0  0  0  0  0  0
    6.9365    5.0950    0.0000 H   0  0  0  0  0  0  0  0  0  0  0  0
    6.1394    5.0950    0.0000 H   0  0  0  0  0  0  0  0  0  0  0  0
    5.2734    3.6450    0.0000 H   0  0  0  0  0  0  0  0  0  0  0  0
    6.0705    3.6450    0.0000 H   0  0  0  0  0  0  0  0  0  0  0  0
    7.9409    4.4300    0.0000 H   0  0  0  0  0  0  0  0  0  0  0  0
    7.4040    3.5000    0.0000 H   0  0  0  0  0  0  0  0  0  0  0  0
    4.2690    4.3100    0.0000 H   0  0  0  0  0  0  0  0  0  0  0  0
    4.8059    5.2400    0.0000 H   0  0  0  0  0  0  0  0  0  0  0  0
    2.2690    3.0600    0.0000 H   0  0  0  0  0  0  0  0  0  0  0  0
    7.2394    1.1900    0.0000 H   0  0  0  0  0  0  0  0  0  0  0  0
  1  9  1  0  0  0  0
  1 21  1  0  0  0  0
  2 10  1  0  0  0  0
  2 22  1  0  0  0  0
  3  9  1  0  0  0  0
  4 10  1  0  0  0  0
  5  9  2  0  0  0  0
  6 10  2  0  0  0  0
  7 11  1  0  0  0  0
  7 17  1  0  0  0  0
  7 18  1  0  0  0  0
  8 12  1  0  0  0  0
  8 19  1  0  0  0  0
  8 20  1  0  0  0  0
 11 12  1  0  0  0  0
 11 13  1  0  0  0  0
 11 14  1  0  0  0  0
 12 15  1  0  0  0  0
 12 16  1  0  0  0  0
M  CHG  4   3  -1   4  -1   9   1  10   1
M  END
> <PUBCHEM_COMPOUND_CID>
12200823

> <PUBCHEM_COMPOUND_CANONICALIZED>
1

> <PUBCHEM_CACTVS_COMPLEXITY>
30.8

> <PUBCHEM_CACTVS_HBOND_ACCEPTOR>
8

> <PUBCHEM_CACTVS_HBOND_DONOR>
4

> <PUBCHEM_CACTVS_ROTATABLE_BOND>
1

> <PUBCHEM_CACTVS_SUBSKEYS>
AAADccBDuAAAAAAAAAAAAAAAAAAAAAAAAAAAAAAAAAAAAAAAAAAAHAAUCAAAAADBAAQAAABAQAABAAAAAQAAAAAAAAAAAIAAAAAAQAAAAAAAAAAAEAAAAAAAAAAAAAAAAAAAAAAAAAAAAAAAAAAAAAAAAA==

> <PUBCHEM_IUPAC_OPENEYE_NAME>
ethane-1,2-diamine;nitric acid

> <PUBCHEM_IUPAC_CAS_NAME>
ethane-1,2-diamine;nitric acid

> <PUBCHEM_IUPAC_NAME_MARKUP>
ethane-1,2-diamine;nitric acid

> <PUBCHEM_IUPAC_NAME>
ethane-1,2-diamine;nitric acid

> <PUBCHEM_IUPAC_SYSTEMATIC_NAME>
ethane-1,2-diamine;nitric acid

> <PUBCHEM_IUPAC_TRADITIONAL_NAME>
2-aminoethylamine;nitric acid

> <PUBCHEM_IUPAC_INCHI>
InChI=1S/C2H8N2.2HNO3/c3-1-2-4;2*2-1(3)4/h1-4H2;2*(H,2,3,4)

> <PUBCHEM_IUPAC_INCHIKEY>
FONBHTQCMAUYEF-UHFFFAOYSA-N

> <PUBCHEM_EXACT_MASS>
186.060034

> <PUBCHEM_MOLECULAR_FORMULA>
C2H10N4O6

> <PUBCHEM_MOLECULAR_WEIGHT>
186.12

> <PUBCHEM_OPENEYE_CAN_SMILES>
C(CN)N.[N+](=O)(O)[O-].[N+](=O)(O)[O-]

> <PUBCHEM_OPENEYE_ISO_SMILES>
C(CN)N.[N+](=O)(O)[O-].[N+](=O)(O)[O-]

> <PUBCHEM_CACTVS_TPSA>
184

> <PUBCHEM_MONOISOTOPIC_WEIGHT>
186.060034

> <PUBCHEM_TOTAL_CHARGE>
0

> <PUBCHEM_HEAVY_ATOM_COUNT>
12

> <PUBCHEM_ATOM_DEF_STEREO_COUNT>
0

> <PUBCHEM_ATOM_UDEF_STEREO_COUNT>
0

> <PUBCHEM_BOND_DEF_STEREO_COUNT>
0

> <PUBCHEM_BOND_UDEF_STEREO_COUNT>
0

> <PUBCHEM_ISOTOPIC_ATOM_COUNT>
0

> <PUBCHEM_COMPONENT_COUNT>
3

> <PUBCHEM_CACTVS_TAUTO_COUNT>
-1

> <PUBCHEM_COORDINATE_TYPE>
1
5
255

$$$$
