21857
  -OEChem-02042123532D

 15 15  0     0  0  0  0  0  0999 V2000
    3.7320    1.0000    0.0000 N   0  0  0  0  0  0  0  0  0  0  0  0
    2.8660   -0.5000    0.0000 N   0  0  0  0  0  0  0  0  0  0  0  0
    4.5981   -0.5000    0.0000 N   0  0  0  0  0  0  0  0  0  0  0  0
    2.0000    1.0000    0.0000 N   0  0  0  0  0  0  0  0  0  0  0  0
    5.4641    1.0000    0.0000 N   0  0  0  0  0  0  0  0  0  0  0  0
    3.7320   -2.0000    0.0000 N   0  0  0  0  0  0  0  0  0  0  0  0
    2.0000    2.0000    0.0000 N   0  3  0  0  0  0  0  0  0  0  0  0
    6.3301    0.5000    0.0000 N   0  3  0  0  0  0  0  0  0  0  0  0
    2.8660   -2.5000    0.0000 N   0  3  0  0  0  0  0  0  0  0  0  0
    2.0000    3.0000    0.0000 N   0  5  0  0  0  0  0  0  0  0  0  0
    7.1962   -0.0000    0.0000 N   0  5  0  0  0  0  0  0  0  0  0  0
    2.0000   -3.0000    0.0000 N   0  5  0  0  0  0  0  0  0  0  0  0
    2.8660    0.5000    0.0000 C   0  0  0  0  0  0  0  0  0  0  0  0
    4.5981    0.5000    0.0000 C   0  0  0  0  0  0  0  0  0  0  0  0
    3.7320   -1.0000    0.0000 C   0  0  0  0  0  0  0  0  0  0  0  0
  1 13  2  0  0  0  0
  1 14  1  0  0  0  0
  2 13  1  0  0  0  0
  2 15  2  0  0  0  0
  3 14  2  0  0  0  0
  3 15  1  0  0  0  0
  4  7  2  0  0  0  0
  4 13  1  0  0  0  0
  5  8  2  0  0  0  0
  5 14  1  0  0  0  0
  6  9  2  0  0  0  0
  6 15  1  0  0  0  0
  7 10  2  0  0  0  0
  8 11  2  0  0  0  0
  9 12  2  0  0  0  0
M  CHG  6   7   1   8   1   9   1  10  -1  11  -1  12  -1
M  END
> <PUBCHEM_COMPOUND_CID>
21857

> <PUBCHEM_COMPOUND_CANONICALIZED>
1

> <PUBCHEM_CACTVS_COMPLEXITY>
284

> <PUBCHEM_CACTVS_HBOND_ACCEPTOR>
9

> <PUBCHEM_CACTVS_HBOND_DONOR>
0

> <PUBCHEM_CACTVS_ROTATABLE_BOND>
3

> <PUBCHEM_CACTVS_SUBSKEYS>
AAADcQBDwAAAAAAAAAAAAAAAAAAAAAAAAAAsAAAAAAAAAAABgAAABAAIAAAAAAAAAAABEAYIEAAiAAAAJAAAAAkAAIABAAAAAACACAAAAAAAAAAIAAAAAAAAAAAAAAAAAAAAAAAAAAAAAAAAAAAAAAAAAA==

> <PUBCHEM_IUPAC_OPENEYE_NAME>
2,4,6-triazido-1,3,5-triazine

> <PUBCHEM_IUPAC_CAS_NAME>
2,4,6-triazido-1,3,5-triazine

> <PUBCHEM_IUPAC_NAME_MARKUP>
2,4,6-triazido-1,3,5-triazine

> <PUBCHEM_IUPAC_NAME>
2,4,6-triazido-1,3,5-triazine

> <PUBCHEM_IUPAC_SYSTEMATIC_NAME>
2,4,6-triazido-1,3,5-triazine

> <PUBCHEM_IUPAC_TRADITIONAL_NAME>
2,4,6-triazido-s-triazine

> <PUBCHEM_IUPAC_INCHI>
InChI=1S/C3N12/c4-13-10-1-7-2(11-14-5)9-3(8-1)12-15-6

> <PUBCHEM_IUPAC_INCHIKEY>
JKYMSKUDZIJFKI-UHFFFAOYSA-N

> <PUBCHEM_XLOGP3_AA>
3.8

> <PUBCHEM_EXACT_MASS>
204.036888

> <PUBCHEM_MOLECULAR_FORMULA>
C3N12

> <PUBCHEM_MOLECULAR_WEIGHT>
204.11

> <PUBCHEM_OPENEYE_CAN_SMILES>
C1(=NC(=NC(=N1)N=[N+]=[N-])N=[N+]=[N-])N=[N+]=[N-]

> <PUBCHEM_OPENEYE_ISO_SMILES>
C1(=NC(=NC(=N1)N=[N+]=[N-])N=[N+]=[N-])N=[N+]=[N-]

> <PUBCHEM_CACTVS_TPSA>
81.8

> <PUBCHEM_MONOISOTOPIC_WEIGHT>
204.036888

> <PUBCHEM_TOTAL_CHARGE>
0

> <PUBCHEM_HEAVY_ATOM_COUNT>
15

> <PUBCHEM_ATOM_DEF_STEREO_COUNT>
0

> <PUBCHEM_ATOM_UDEF_STEREO_COUNT>
0

> <PUBCHEM_BOND_DEF_STEREO_COUNT>
0

> <PUBCHEM_BOND_UDEF_STEREO_COUNT>
3

> <PUBCHEM_ISOTOPIC_ATOM_COUNT>
0

> <PUBCHEM_COMPONENT_COUNT>
1

> <PUBCHEM_CACTVS_TAUTO_COUNT>
-1

> <PUBCHEM_COORDINATE_TYPE>
1
5
255

> <PUBCHEM_BONDANNOTATIONS>
1  13  8
1  14  8
2  13  8
2  15  8
3  14  8
3  15  8
4  7  1
5  8  1
6  9  1

$$$$
