26524
  -OEChem-02042123522D

 13 12  0     0  0  0  0  0  0999 V2000
    2.0000    0.4400    0.0000 O   0  5  0  0  0  0  0  0  0  0  0  0
    7.1962    0.4400    0.0000 O   0  5  0  0  0  0  0  0  0  0  0  0
    2.8660   -1.0600    0.0000 O   0  0  0  0  0  0  0  0  0  0  0  0
    6.3301   -1.0600    0.0000 O   0  0  0  0  0  0  0  0  0  0  0  0
    3.7320    0.4400    0.0000 N   0  0  0  0  0  0  0  0  0  0  0  0
    5.4641    0.4400    0.0000 N   0  0  0  0  0  0  0  0  0  0  0  0
    2.8660   -0.0600    0.0000 N   0  3  0  0  0  0  0  0  0  0  0  0
    6.3301   -0.0600    0.0000 N   0  3  0  0  0  0  0  0  0  0  0  0
    4.5981   -0.0600    0.0000 C   0  0  0  0  0  0  0  0  0  0  0  0
    4.1996   -0.5349    0.0000 H   0  0  0  0  0  0  0  0  0  0  0  0
    4.9966   -0.5349    0.0000 H   0  0  0  0  0  0  0  0  0  0  0  0
    3.7320    1.0600    0.0000 H   0  0  0  0  0  0  0  0  0  0  0  0
    5.4641    1.0600    0.0000 H   0  0  0  0  0  0  0  0  0  0  0  0
  1  7  1  0  0  0  0
  2  8  1  0  0  0  0
  3  7  2  0  0  0  0
  4  8  2  0  0  0  0
  5  7  1  0  0  0  0
  5  9  1  0  0  0  0
  5 12  1  0  0  0  0
  6  8  1  0  0  0  0
  6  9  1  0  0  0  0
  6 13  1  0  0  0  0
  9 10  1  0  0  0  0
  9 11  1  0  0  0  0
M  CHG  4   1  -1   2  -1   7   1   8   1
M  END
> <PUBCHEM_COMPOUND_CID>
26524

> <PUBCHEM_COMPOUND_CANONICALIZED>
1

> <PUBCHEM_CACTVS_COMPLEXITY>
96.7

> <PUBCHEM_CACTVS_HBOND_ACCEPTOR>
6

> <PUBCHEM_CACTVS_HBOND_DONOR>
2

> <PUBCHEM_CACTVS_ROTATABLE_BOND>
2

> <PUBCHEM_CACTVS_SUBSKEYS>
AAADcYADuAAAAAAAAAAAAAAAAAAAAAAAAAAAAAAAAAAAAAAAAAAAFAAcAAAAAAAAAAQBAABiQAABAAAAAQAAAAAAAAAEAIAAAAAAAAAAAAAAAAAQAAAAAAAAAAAAAAAAAAAAAAAAAAAAAAAAAAAAAAAAAA==

> <PUBCHEM_IUPAC_OPENEYE_NAME>
N-(nitramidomethyl)nitramide

> <PUBCHEM_IUPAC_CAS_NAME>
N-(nitramidomethyl)nitramide

> <PUBCHEM_IUPAC_NAME_MARKUP>
<I>N</I>-(nitramidomethyl)nitramide

> <PUBCHEM_IUPAC_NAME>
N-(nitramidomethyl)nitramide

> <PUBCHEM_IUPAC_SYSTEMATIC_NAME>
N-(nitramidomethyl)nitramide

> <PUBCHEM_IUPAC_TRADITIONAL_NAME>
N-(nitramidomethyl)nitramide

> <PUBCHEM_IUPAC_INCHI>
InChI=1S/CH4N4O4/c6-4(7)2-1-3-5(8)9/h2-3H,1H2

> <PUBCHEM_IUPAC_INCHIKEY>
HSMJRIUFXFAZSY-UHFFFAOYSA-N

> <PUBCHEM_XLOGP3_AA>
0.9

> <PUBCHEM_EXACT_MASS>
136.023255

> <PUBCHEM_MOLECULAR_FORMULA>
CH4N4O4

> <PUBCHEM_MOLECULAR_WEIGHT>
136.07

> <PUBCHEM_OPENEYE_CAN_SMILES>
C(N[N+](=O)[O-])N[N+](=O)[O-]

> <PUBCHEM_OPENEYE_ISO_SMILES>
C(N[N+](=O)[O-])N[N+](=O)[O-]

> <PUBCHEM_CACTVS_TPSA>
116

> <PUBCHEM_MONOISOTOPIC_WEIGHT>
136.023255

> <PUBCHEM_TOTAL_CHARGE>
0

> <PUBCHEM_HEAVY_ATOM_COUNT>
9

> <PUBCHEM_ATOM_DEF_STEREO_COUNT>
0

> <PUBCHEM_ATOM_UDEF_STEREO_COUNT>
0

> <PUBCHEM_BOND_DEF_STEREO_COUNT>
0

> <PUBCHEM_BOND_UDEF_STEREO_COUNT>
0

> <PUBCHEM_ISOTOPIC_ATOM_COUNT>
0

> <PUBCHEM_COMPONENT_COUNT>
1

> <PUBCHEM_CACTVS_TAUTO_COUNT>
-1

> <PUBCHEM_COORDINATE_TYPE>
1
5
255

$$$$
