34385
  -OEChem-02042114022D

 26 27  0     0  0  0  0  0  0999 V2000
    7.9787   -1.1881    0.0000 O   0  5  0  0  0  0  0  0  0  0  0  0
    3.7320   -2.0422    0.0000 O   0  5  0  0  0  0  0  0  0  0  0  0
    6.6391   -2.2860    0.0000 O   0  0  0  0  0  0  0  0  0  0  0  0
    4.9401   -2.4819    0.0000 O   0  0  0  0  0  0  0  0  0  0  0  0
    2.8660    2.4578    0.0000 O   0  5  0  0  0  0  0  0  0  0  0  0
    8.1244    2.4819    0.0000 O   0  5  0  0  0  0  0  0  0  0  0  0
    2.0000    0.9578    0.0000 O   0  0  0  0  0  0  0  0  0  0  0  0
    8.9962    0.9853    0.0000 O   0  0  0  0  0  0  0  0  0  0  0  0
    6.9920   -1.3502    0.0000 N   0  3  0  0  0  0  0  0  0  0  0  0
    4.5981   -1.5422    0.0000 N   0  3  0  0  0  0  0  0  0  0  0  0
    2.8660    1.4578    0.0000 N   0  3  0  0  0  0  0  0  0  0  0  0
    8.1282    1.4819    0.0000 N   0  3  0  0  0  0  0  0  0  0  0  0
    5.4641   -0.0422    0.0000 C   0  0  0  0  0  0  0  0  0  0  0  0
    5.4641    0.9578    0.0000 C   0  0  0  0  0  0  0  0  0  0  0  0
    6.3580   -0.5769    0.0000 C   0  0  0  0  0  0  0  0  0  0  0  0
    4.5981   -0.5422    0.0000 C   0  0  0  0  0  0  0  0  0  0  0  0
    6.3580    1.4924    0.0000 C   0  0  0  0  0  0  0  0  0  0  0  0
    4.5981    1.4578    0.0000 C   0  0  0  0  0  0  0  0  0  0  0  0
    3.7320    0.9578    0.0000 C   0  0  0  0  0  0  0  0  0  0  0  0
    7.2641    0.9786    0.0000 C   0  0  0  0  0  0  0  0  0  0  0  0
    7.2641   -0.0630    0.0000 C   0  0  0  0  0  0  0  0  0  0  0  0
    3.7320   -0.0422    0.0000 C   0  0  0  0  0  0  0  0  0  0  0  0
    6.3509    2.1124    0.0000 H   0  0  0  0  0  0  0  0  0  0  0  0
    4.5981    2.0778    0.0000 H   0  0  0  0  0  0  0  0  0  0  0  0
    7.7998   -0.3751    0.0000 H   0  0  0  0  0  0  0  0  0  0  0  0
    3.1951   -0.3522    0.0000 H   0  0  0  0  0  0  0  0  0  0  0  0
  1  9  1  0  0  0  0
  2 10  1  0  0  0  0
  3  9  2  0  0  0  0
  4 10  2  0  0  0  0
  5 11  1  0  0  0  0
  6 12  1  0  0  0  0
  7 11  2  0  0  0  0
  8 12  2  0  0  0  0
  9 15  1  0  0  0  0
 10 16  1  0  0  0  0
 11 19  1  0  0  0  0
 12 20  1  0  0  0  0
 13 14  1  0  0  0  0
 13 15  2  0  0  0  0
 13 16  1  0  0  0  0
 14 17  2  0  0  0  0
 14 18  1  0  0  0  0
 15 21  1  0  0  0  0
 16 22  2  0  0  0  0
 17 20  1  0  0  0  0
 17 23  1  0  0  0  0
 18 19  2  0  0  0  0
 18 24  1  0  0  0  0
 19 22  1  0  0  0  0
 20 21  2  0  0  0  0
 21 25  1  0  0  0  0
 22 26  1  0  0  0  0
M  CHG  8   1  -1   2  -1   5  -1   6  -1   9   1  10   1  11   1  12   1
M  END
> <PUBCHEM_COMPOUND_CID>
34385

> <PUBCHEM_COMPOUND_CANONICALIZED>
1

> <PUBCHEM_CACTVS_COMPLEXITY>
459

> <PUBCHEM_CACTVS_HBOND_ACCEPTOR>
8

> <PUBCHEM_CACTVS_HBOND_DONOR>
0

> <PUBCHEM_CACTVS_ROTATABLE_BOND>
0

> <PUBCHEM_CACTVS_SUBSKEYS>
AAADcYBzvAAAAAAAAAAAAAAAAAAAAAAAAAAwYAAAAAAAAADBUAAAHAAEAAAADAiBGAAwwMAQQACBAiRCQwCCAAAgAgAgiAAAZIoIICKA0dGAIABggAAIyAcQgIAOiAAAQAQSAAAQAACACCQAAAAAAAAAAA==

> <PUBCHEM_IUPAC_OPENEYE_NAME>
1,3,6,8-tetranitronaphthalene

> <PUBCHEM_IUPAC_CAS_NAME>
1,3,6,8-tetranitronaphthalene

> <PUBCHEM_IUPAC_NAME_MARKUP>
1,3,6,8-tetranitronaphthalene

> <PUBCHEM_IUPAC_NAME>
1,3,6,8-tetranitronaphthalene

> <PUBCHEM_IUPAC_SYSTEMATIC_NAME>
1,3,6,8-tetranitronaphthalene

> <PUBCHEM_IUPAC_TRADITIONAL_NAME>
1,3,6,8-tetranitronaphthalene

> <PUBCHEM_IUPAC_INCHI>
InChI=1S/C10H4N4O8/c15-11(16)6-1-5-2-7(12(17)18)4-9(14(21)22)10(5)8(3-6)13(19)20/h1-4H

> <PUBCHEM_IUPAC_INCHIKEY>
BFMBQYIQQLBGJA-UHFFFAOYSA-N

> <PUBCHEM_XLOGP3>
2.1

> <PUBCHEM_EXACT_MASS>
308.002913

> <PUBCHEM_MOLECULAR_FORMULA>
C10H4N4O8

> <PUBCHEM_MOLECULAR_WEIGHT>
308.16

> <PUBCHEM_OPENEYE_CAN_SMILES>
C1=C2C=C(C=C(C2=C(C=C1[N+](=O)[O-])[N+](=O)[O-])[N+](=O)[O-])[N+](=O)[O-]

> <PUBCHEM_OPENEYE_ISO_SMILES>
C1=C2C=C(C=C(C2=C(C=C1[N+](=O)[O-])[N+](=O)[O-])[N+](=O)[O-])[N+](=O)[O-]

> <PUBCHEM_CACTVS_TPSA>
183

> <PUBCHEM_MONOISOTOPIC_WEIGHT>
308.002913

> <PUBCHEM_TOTAL_CHARGE>
0

> <PUBCHEM_HEAVY_ATOM_COUNT>
22

> <PUBCHEM_ATOM_DEF_STEREO_COUNT>
0

> <PUBCHEM_ATOM_UDEF_STEREO_COUNT>
0

> <PUBCHEM_BOND_DEF_STEREO_COUNT>
0

> <PUBCHEM_BOND_UDEF_STEREO_COUNT>
0

> <PUBCHEM_ISOTOPIC_ATOM_COUNT>
0

> <PUBCHEM_COMPONENT_COUNT>
1

> <PUBCHEM_CACTVS_TAUTO_COUNT>
-1

> <PUBCHEM_COORDINATE_TYPE>
1
5
255

> <PUBCHEM_BONDANNOTATIONS>
13  14  8
13  15  8
13  16  8
14  17  8
14  18  8
15  21  8
16  22  8
17  20  8
18  19  8
19  22  8
20  21  8

$$$$
