61232
  -OEChem-02042114012D

 20 19  0     0  0  0  0  0  0999 V2000
    6.0981   -0.6160    0.0000 O   0  5  0  0  0  0  0  0  0  0  0  0
    6.3301    0.2500    0.0000 O   0  5  0  0  0  0  0  0  0  0  0  0
    4.5981    1.9820    0.0000 O   0  5  0  0  0  0  0  0  0  0  0  0
    2.0000   -0.2500    0.0000 O   0  5  0  0  0  0  0  0  0  0  0  0
    2.2320    0.6160    0.0000 O   0  5  0  0  0  0  0  0  0  0  0  0
    3.7320   -1.9820    0.0000 O   0  5  0  0  0  0  0  0  0  0  0  0
    4.9245   -1.6008    0.0000 O   0  0  0  0  0  0  0  0  0  0  0  0
    5.4641    1.7500    0.0000 O   0  0  0  0  0  0  0  0  0  0  0  0
    3.0981    1.1160    0.0000 O   0  0  0  0  0  0  0  0  0  0  0  0
    2.8660   -1.7500    0.0000 O   0  0  0  0  0  0  0  0  0  0  0  0
    3.4057    1.6008    0.0000 O   0  0  0  0  0  0  0  0  0  0  0  0
    5.2320   -1.1160    0.0000 O   0  0  0  0  0  0  0  0  0  0  0  0
    5.0981   -0.6160    0.0000 N   0  3  0  0  0  0  0  0  0  0  0  0
    5.4641    0.7500    0.0000 N   0  3  0  0  0  0  0  0  0  0  0  0
    4.0981    1.1160    0.0000 N   0  3  0  0  0  0  0  0  0  0  0  0
    2.8660   -0.7500    0.0000 N   0  3  0  0  0  0  0  0  0  0  0  0
    3.2320    0.6160    0.0000 N   0  3  0  0  0  0  0  0  0  0  0  0
    4.2320   -1.1160    0.0000 N   0  3  0  0  0  0  0  0  0  0  0  0
    4.5981    0.2500    0.0000 C   0  0  0  0  0  0  0  0  0  0  0  0
    3.7320   -0.2500    0.0000 C   0  0  0  0  0  0  0  0  0  0  0  0
  1 13  1  0  0  0  0
  2 14  1  0  0  0  0
  3 15  1  0  0  0  0
  4 16  1  0  0  0  0
  5 17  1  0  0  0  0
  6 18  1  0  0  0  0
  7 13  2  0  0  0  0
  8 14  2  0  0  0  0
  9 15  2  0  0  0  0
 10 16  2  0  0  0  0
 11 17  2  0  0  0  0
 12 18  2  0  0  0  0
 13 19  1  0  0  0  0
 14 19  1  0  0  0  0
 15 19  1  0  0  0  0
 16 20  1  0  0  0  0
 17 20  1  0  0  0  0
 18 20  1  0  0  0  0
 19 20  1  0  0  0  0
M  CHG  8   1  -1   2  -1   3  -1   4  -1   5  -1   6  -1  13   1  14   1
M  CHG  4  15   1  16   1  17   1  18   1
M  END
> <PUBCHEM_COMPOUND_CID>
61232

> <PUBCHEM_COMPOUND_CANONICALIZED>
1

> <PUBCHEM_CACTVS_COMPLEXITY>
381

> <PUBCHEM_CACTVS_HBOND_ACCEPTOR>
12

> <PUBCHEM_CACTVS_HBOND_DONOR>
0

> <PUBCHEM_CACTVS_ROTATABLE_BOND>
1

> <PUBCHEM_CACTVS_SUBSKEYS>
AAADcQBDvAAAAAAAAAAAAAAAAAAAAAAAAAAAAAAAAAAAAAAAAAAADAAEAAAAAAABAAABAAAQQAABAAAAAwAAAAAAAAAgAAAAAAAAQAAAAAAAAAAAAAAAAAAAAAAAAAAAAAAAAAAAAAAAAAAAAAAAAAAAAA==

> <PUBCHEM_IUPAC_OPENEYE_NAME>
1,1,1,2,2,2-hexanitroethane

> <PUBCHEM_IUPAC_CAS_NAME>
1,1,1,2,2,2-hexanitroethane

> <PUBCHEM_IUPAC_NAME_MARKUP>
1,1,1,2,2,2-hexanitroethane

> <PUBCHEM_IUPAC_NAME>
1,1,1,2,2,2-hexanitroethane

> <PUBCHEM_IUPAC_SYSTEMATIC_NAME>
1,1,1,2,2,2-hexanitroethane

> <PUBCHEM_IUPAC_TRADITIONAL_NAME>
1,1,1,2,2,2-hexanitroethane

> <PUBCHEM_IUPAC_INCHI>
InChI=1S/C2N6O12/c9-3(10)1(4(11)12,5(13)14)2(6(15)16,7(17)18)8(19)20

> <PUBCHEM_IUPAC_INCHIKEY>
CCAKQXWHJIKAST-UHFFFAOYSA-N

> <PUBCHEM_XLOGP3_AA>
-0.2

> <PUBCHEM_EXACT_MASS>
299.957419

> <PUBCHEM_MOLECULAR_FORMULA>
C2N6O12

> <PUBCHEM_MOLECULAR_WEIGHT>
300.06

> <PUBCHEM_OPENEYE_CAN_SMILES>
C(C([N+](=O)[O-])([N+](=O)[O-])[N+](=O)[O-])([N+](=O)[O-])([N+](=O)[O-])[N+](=O)[O-]

> <PUBCHEM_OPENEYE_ISO_SMILES>
C(C([N+](=O)[O-])([N+](=O)[O-])[N+](=O)[O-])([N+](=O)[O-])([N+](=O)[O-])[N+](=O)[O-]

> <PUBCHEM_CACTVS_TPSA>
275

> <PUBCHEM_MONOISOTOPIC_WEIGHT>
299.957419

> <PUBCHEM_TOTAL_CHARGE>
0

> <PUBCHEM_HEAVY_ATOM_COUNT>
20

> <PUBCHEM_ATOM_DEF_STEREO_COUNT>
0

> <PUBCHEM_ATOM_UDEF_STEREO_COUNT>
0

> <PUBCHEM_BOND_DEF_STEREO_COUNT>
0

> <PUBCHEM_BOND_UDEF_STEREO_COUNT>
0

> <PUBCHEM_ISOTOPIC_ATOM_COUNT>
0

> <PUBCHEM_COMPONENT_COUNT>
1

> <PUBCHEM_CACTVS_TAUTO_COUNT>
-1

> <PUBCHEM_COORDINATE_TYPE>
1
5
255

$$$$
