70194
  -OEChem-02042123522D

 16 15  0     0  0  0  0  0  0999 V2000
    3.7320    1.3476    0.0000 O   0  0  0  0  0  0  0  0  0  0  0  0
    5.4641   -0.3845    0.0000 O   0  5  0  0  0  0  0  0  0  0  0  0
    2.0000   -0.3845    0.0000 O   0  5  0  0  0  0  0  0  0  0  0  0
    4.5981    1.1155    0.0000 O   0  0  0  0  0  0  0  0  0  0  0  0
    2.8660   -1.8845    0.0000 O   0  0  0  0  0  0  0  0  0  0  0  0
    4.5981    0.1155    0.0000 N   0  3  0  0  0  0  0  0  0  0  0  0
    2.8660   -0.8845    0.0000 N   0  3  0  0  0  0  0  0  0  0  0  0
    3.7320   -0.3845    0.0000 C   0  0  0  0  0  0  0  0  0  0  0  0
    3.2320    0.4815    0.0000 C   0  0  0  0  0  0  0  0  0  0  0  0
    4.2320   -1.2505    0.0000 C   0  0  0  0  0  0  0  0  0  0  0  0
    2.7571    0.8801    0.0000 H   0  0  0  0  0  0  0  0  0  0  0  0
    2.7571    0.0830    0.0000 H   0  0  0  0  0  0  0  0  0  0  0  0
    3.6951   -1.5605    0.0000 H   0  0  0  0  0  0  0  0  0  0  0  0
    4.5420   -1.7874    0.0000 H   0  0  0  0  0  0  0  0  0  0  0  0
    4.7690   -0.9405    0.0000 H   0  0  0  0  0  0  0  0  0  0  0  0
    3.4220    1.8845    0.0000 H   0  0  0  0  0  0  0  0  0  0  0  0
  1  9  1  0  0  0  0
  1 16  1  0  0  0  0
  2  6  1  0  0  0  0
  3  7  1  0  0  0  0
  4  6  2  0  0  0  0
  5  7  2  0  0  0  0
  6  8  1  0  0  0  0
  7  8  1  0  0  0  0
  8  9  1  0  0  0  0
  8 10  1  0  0  0  0
  9 11  1  0  0  0  0
  9 12  1  0  0  0  0
 10 13  1  0  0  0  0
 10 14  1  0  0  0  0
 10 15  1  0  0  0  0
M  CHG  4   2  -1   3  -1   6   1   7   1
M  END
> <PUBCHEM_COMPOUND_CID>
70194

> <PUBCHEM_COMPOUND_CANONICALIZED>
1

> <PUBCHEM_CACTVS_COMPLEXITY>
141

> <PUBCHEM_CACTVS_HBOND_ACCEPTOR>
5

> <PUBCHEM_CACTVS_HBOND_DONOR>
1

> <PUBCHEM_CACTVS_ROTATABLE_BOND>
1

> <PUBCHEM_CACTVS_SUBSKEYS>
AAADcYBDOAAAAAAAAAAAAAAAAAAAAAAAAAAAAAAAAAAAAAAAAAAAHgAECAAACAihgAIDAAAQQgABAAAAAwAAAAAAAAAgAAAAAAACEAAAAAAAQAAAAAAAAAAAAAAAAAAAAAAAAAAAAAAAAAAAAAAAAAAAAA==

> <PUBCHEM_IUPAC_OPENEYE_NAME>
2,2-dinitropropan-1-ol

> <PUBCHEM_IUPAC_CAS_NAME>
2,2-dinitro-1-propanol

> <PUBCHEM_IUPAC_NAME_MARKUP>
2,2-dinitropropan-1-ol

> <PUBCHEM_IUPAC_NAME>
2,2-dinitropropan-1-ol

> <PUBCHEM_IUPAC_SYSTEMATIC_NAME>
2,2-dinitropropan-1-ol

> <PUBCHEM_IUPAC_TRADITIONAL_NAME>
2,2-dinitropropan-1-ol

> <PUBCHEM_IUPAC_INCHI>
InChI=1S/C3H6N2O5/c1-3(2-6,4(7)8)5(9)10/h6H,2H2,1H3

> <PUBCHEM_IUPAC_INCHIKEY>
IPLRZPREFHIGIB-UHFFFAOYSA-N

> <PUBCHEM_XLOGP3_AA>
-0.4

> <PUBCHEM_EXACT_MASS>
150.027671

> <PUBCHEM_MOLECULAR_FORMULA>
C3H6N2O5

> <PUBCHEM_MOLECULAR_WEIGHT>
150.09

> <PUBCHEM_OPENEYE_CAN_SMILES>
CC(CO)([N+](=O)[O-])[N+](=O)[O-]

> <PUBCHEM_OPENEYE_ISO_SMILES>
CC(CO)([N+](=O)[O-])[N+](=O)[O-]

> <PUBCHEM_CACTVS_TPSA>
112

> <PUBCHEM_MONOISOTOPIC_WEIGHT>
150.027671

> <PUBCHEM_TOTAL_CHARGE>
0

> <PUBCHEM_HEAVY_ATOM_COUNT>
10

> <PUBCHEM_ATOM_DEF_STEREO_COUNT>
0

> <PUBCHEM_ATOM_UDEF_STEREO_COUNT>
0

> <PUBCHEM_BOND_DEF_STEREO_COUNT>
0

> <PUBCHEM_BOND_UDEF_STEREO_COUNT>
0

> <PUBCHEM_ISOTOPIC_ATOM_COUNT>
0

> <PUBCHEM_COMPONENT_COUNT>
1

> <PUBCHEM_CACTVS_TAUTO_COUNT>
-1

> <PUBCHEM_COORDINATE_TYPE>
1
5
255

$$$$
