8576
  -OEChem-02042114022D

 36 37  0     0  0  0  0  0  0999 V2000
    6.7909   -2.6258    0.0000 O   0  5  0  0  0  0  0  0  0  0  0  0
    2.6697    2.2857    0.0000 O   0  5  0  0  0  0  0  0  0  0  0  0
    2.0000   -1.5124    0.0000 O   0  5  0  0  0  0  0  0  0  0  0  0
    7.5525    0.5085    0.0000 O   0  5  0  0  0  0  0  0  0  0  0  0
    7.0917   -0.9200    0.0000 O   0  0  0  0  0  0  0  0  0  0  0  0
    2.9705    0.5800    0.0000 O   0  0  0  0  0  0  0  0  0  0  0  0
    2.8660   -0.0124    0.0000 O   0  0  0  0  0  0  0  0  0  0  0  0
    6.2257   -0.6048    0.0000 O   0  0  0  0  0  0  0  0  0  0  0  0
    3.7320   -4.5124    0.0000 O   0  5  0  0  0  0  0  0  0  0  0  0
    5.3234    4.5124    0.0000 O   0  5  0  0  0  0  0  0  0  0  0  0
    5.4641   -4.5124    0.0000 O   0  0  0  0  0  0  0  0  0  0  0  0
    6.9510    3.9200    0.0000 O   0  0  0  0  0  0  0  0  0  0  0  0
    4.5981   -0.0124    0.0000 N   0  0  0  0  0  0  0  0  0  0  0  0
    6.4489   -1.6861    0.0000 N   0  3  0  0  0  0  0  0  0  0  0  0
    3.3125    1.5197    0.0000 N   0  3  0  0  0  0  0  0  0  0  0  0
    2.8660   -1.0124    0.0000 N   0  3  0  0  0  0  0  0  0  0  0  0
    6.5677    0.3349    0.0000 N   0  3  0  0  0  0  0  0  0  0  0  0
    4.5981   -4.0124    0.0000 N   0  3  0  0  0  0  0  0  0  0  0  0
    5.9662    3.7464    0.0000 N   0  3  0  0  0  0  0  0  0  0  0  0
    4.5981   -1.0124    0.0000 C   0  0  0  0  0  0  0  0  0  0  0  0
    4.9401    0.9273    0.0000 C   0  0  0  0  0  0  0  0  0  0  0  0
    5.4641   -1.5124    0.0000 C   0  0  0  0  0  0  0  0  0  0  0  0
    4.2973    1.6933    0.0000 C   0  0  0  0  0  0  0  0  0  0  0  0
    3.7320   -1.5124    0.0000 C   0  0  0  0  0  0  0  0  0  0  0  0
    5.9249    1.1009    0.0000 C   0  0  0  0  0  0  0  0  0  0  0  0
    5.4641   -2.5124    0.0000 C   0  0  0  0  0  0  0  0  0  0  0  0
    4.6393    2.6330    0.0000 C   0  0  0  0  0  0  0  0  0  0  0  0
    3.7320   -2.5124    0.0000 C   0  0  0  0  0  0  0  0  0  0  0  0
    6.2669    2.0406    0.0000 C   0  0  0  0  0  0  0  0  0  0  0  0
    4.5981   -3.0124    0.0000 C   0  0  0  0  0  0  0  0  0  0  0  0
    5.6241    2.8067    0.0000 C   0  0  0  0  0  0  0  0  0  0  0  0
    4.0611    0.2976    0.0000 H   0  0  0  0  0  0  0  0  0  0  0  0
    6.0010   -2.8224    0.0000 H   0  0  0  0  0  0  0  0  0  0  0  0
    4.2408    3.1080    0.0000 H   0  0  0  0  0  0  0  0  0  0  0  0
    3.1951   -2.8224    0.0000 H   0  0  0  0  0  0  0  0  0  0  0  0
    6.8775    2.1483    0.0000 H   0  0  0  0  0  0  0  0  0  0  0  0
  1 14  1  0  0  0  0
  2 15  1  0  0  0  0
  3 16  1  0  0  0  0
  4 17  1  0  0  0  0
  5 14  2  0  0  0  0
  6 15  2  0  0  0  0
  7 16  2  0  0  0  0
  8 17  2  0  0  0  0
  9 18  1  0  0  0  0
 10 19  1  0  0  0  0
 11 18  2  0  0  0  0
 12 19  2  0  0  0  0
 13 20  1  0  0  0  0
 13 21  1  0  0  0  0
 13 32  1  0  0  0  0
 14 22  1  0  0  0  0
 15 23  1  0  0  0  0
 16 24  1  0  0  0  0
 17 25  1  0  0  0  0
 18 30  1  0  0  0  0
 19 31  1  0  0  0  0
 20 22  2  0  0  0  0
 20 24  1  0  0  0  0
 21 23  2  0  0  0  0
 21 25  1  0  0  0  0
 22 26  1  0  0  0  0
 23 27  1  0  0  0  0
 24 28  2  0  0  0  0
 25 29  2  0  0  0  0
 26 30  2  0  0  0  0
 26 33  1  0  0  0  0
 27 31  2  0  0  0  0
 27 34  1  0  0  0  0
 28 30  1  0  0  0  0
 28 35  1  0  0  0  0
 29 31  1  0  0  0  0
 29 36  1  0  0  0  0
M  CHG  8   1  -1   2  -1   3  -1   4  -1   9  -1  10  -1  14   1  15   1
M  CHG  4  16   1  17   1  18   1  19   1
M  END
> <PUBCHEM_COMPOUND_CID>
8576

> <PUBCHEM_COMPOUND_CANONICALIZED>
1

> <PUBCHEM_CACTVS_COMPLEXITY>
662

> <PUBCHEM_CACTVS_HBOND_ACCEPTOR>
13

> <PUBCHEM_CACTVS_HBOND_DONOR>
1

> <PUBCHEM_CACTVS_ROTATABLE_BOND>
2

> <PUBCHEM_CACTVS_SUBSKEYS>
AAADcYBzvAAAAAAAAAAAAAAAAAAAAAAAAAAwYAAAAAAAAAABQAAAHAAUAAAACAiBEAAwwILQQACBACRCQwCCAAAhAgAgiAAAdIoIYGLA0dGUIAhggIDIyAcQAAAAAACAAAQAACAAAQAACAAAQAAAAAAAAA==

> <PUBCHEM_IUPAC_OPENEYE_NAME>
2,4,6-trinitro-N-(2,4,6-trinitrophenyl)aniline

> <PUBCHEM_IUPAC_CAS_NAME>
2,4,6-trinitro-N-(2,4,6-trinitrophenyl)aniline

> <PUBCHEM_IUPAC_NAME_MARKUP>
2,4,6-trinitro-<I>N</I>-(2,4,6-trinitrophenyl)aniline

> <PUBCHEM_IUPAC_NAME>
2,4,6-trinitro-N-(2,4,6-trinitrophenyl)aniline

> <PUBCHEM_IUPAC_SYSTEMATIC_NAME>
2,4,6-trinitro-N-(2,4,6-trinitrophenyl)aniline

> <PUBCHEM_IUPAC_TRADITIONAL_NAME>
dipicrylamine

> <PUBCHEM_IUPAC_INCHI>
InChI=1S/C12H5N7O12/c20-14(21)5-1-7(16(24)25)11(8(2-5)17(26)27)13-12-9(18(28)29)3-6(15(22)23)4-10(12)19(30)31/h1-4,13H

> <PUBCHEM_IUPAC_INCHIKEY>
CBCIHIVRDWLAME-UHFFFAOYSA-N

> <PUBCHEM_XLOGP3_AA>
3

> <PUBCHEM_EXACT_MASS>
438.999619

> <PUBCHEM_MOLECULAR_FORMULA>
C12H5N7O12

> <PUBCHEM_MOLECULAR_WEIGHT>
439.21

> <PUBCHEM_OPENEYE_CAN_SMILES>
C1=C(C=C(C(=C1[N+](=O)[O-])NC2=C(C=C(C=C2[N+](=O)[O-])[N+](=O)[O-])[N+](=O)[O-])[N+](=O)[O-])[N+](=O)[O-]

> <PUBCHEM_OPENEYE_ISO_SMILES>
C1=C(C=C(C(=C1[N+](=O)[O-])NC2=C(C=C(C=C2[N+](=O)[O-])[N+](=O)[O-])[N+](=O)[O-])[N+](=O)[O-])[N+](=O)[O-]

> <PUBCHEM_CACTVS_TPSA>
287

> <PUBCHEM_MONOISOTOPIC_WEIGHT>
438.999619

> <PUBCHEM_TOTAL_CHARGE>
0

> <PUBCHEM_HEAVY_ATOM_COUNT>
31

> <PUBCHEM_ATOM_DEF_STEREO_COUNT>
0

> <PUBCHEM_ATOM_UDEF_STEREO_COUNT>
0

> <PUBCHEM_BOND_DEF_STEREO_COUNT>
0

> <PUBCHEM_BOND_UDEF_STEREO_COUNT>
0

> <PUBCHEM_ISOTOPIC_ATOM_COUNT>
0

> <PUBCHEM_COMPONENT_COUNT>
1

> <PUBCHEM_CACTVS_TAUTO_COUNT>
-1

> <PUBCHEM_COORDINATE_TYPE>
1
5
255

> <PUBCHEM_BONDANNOTATIONS>
20  22  8
20  24  8
21  23  8
21  25  8
22  26  8
23  27  8
24  28  8
25  29  8
26  30  8
27  31  8
28  30  8
29  31  8

$$$$
